<?xml version="1.0" encoding="UTF-8"?>

<!-- generated on 2024-09-02 09:00:31.172265 by osmWebWizard.py UNKNOWN
<configuration>
    <net-file value="/home/usare/2024-09-02-09-00-24/osm.net.xml.gz"/>
    <output-trip-file value="/home/usare/2024-09-02-09-00-24/osm.passenger.trips.xml"/>
    <route-file value="/home/usare/2024-09-02-09-00-24/osm.passenger.rou.xml"/>
    <prefix value="veh"/>
    <trip-attributes value="departLane=&quot;best&quot;"/>
    <fringe-start-attributes value="departSpeed=&quot;max&quot;"/>
    <vehicle-class value="passenger"/>
    <lanes value="True"/>
    <fringe-factor value="50"/>
    <allow-fringe.min-length value="1000.0"/>
    <via-edge-types value="highway.motorway,highway.motorway_link,highway.trunk_link,highway.primary_link,highway.secondary_link,highway.tertiary_link"/>
    <min-distance value="300.0"/>
    <min-distance.fringe value="10.0"/>
    <remove-loops value="True"/>
    <validate value="True"/>
    <end value="100.0"/>
    <insertion-density value="12.0"/>
</configuration>
-->

<!-- generated on 2024-09-02 09:00:31 by Eclipse SUMO duarouter Version 1.20.0
<configuration xmlns:xsi="http://www.w3.org/2001/XMLSchema-instance" xsi:noNamespaceSchemaLocation="http://sumo.dlr.de/xsd/duarouterConfiguration.xsd">

    <input>
        <net-file value="/home/usare/2024-09-02-09-00-24/osm.net.xml.gz"/>
        <route-files value="/home/usare/2024-09-02-09-00-24/osm.passenger.trips.xml"/>
    </input>

    <output>
        <output-file value="/home/usare/2024-09-02-09-00-24/osm.passenger.trips.xml.tmp"/>
        <alternatives-output value="NUL"/>
        <write-trips value="true"/>
    </output>

    <processing>
        <remove-loops value="true"/>
    </processing>

    <time>
        <begin value="0.0"/>
        <end value="100.0"/>
    </time>

    <report>
        <no-warnings value="true"/>
        <ignore-errors value="true"/>
        <no-step-log value="true"/>
    </report>

</configuration>
-->

<routes xmlns:xsi="http://www.w3.org/2001/XMLSchema-instance" xsi:noNamespaceSchemaLocation="http://sumo.dlr.de/xsd/routes_file.xsd">
    <vType id="veh_passenger" vClass="passenger"/>
    <trip id="veh0" type="veh_passenger" depart="0.00" departLane="best" departSpeed="max" from="620179922" to="-115005237"/>
    <trip id="veh1" type="veh_passenger" depart="26.83" departLane="best" departSpeed="max" from="24419432#0" to="1061866707"/>
    <trip id="veh2" type="veh_passenger" depart="53.67" departLane="best" departSpeed="max" from="826491019" to="46995789#0"/>
    <trip id="veh3" type="veh_passenger" depart="80.50" departLane="best" departSpeed="max" from="297428021" to="-115005237"/>
</routes>
