<?xml version="1.0" encoding="UTF-8"?>

<!-- generated on 2024-10-15 09:02:09.554577 by osmWebWizard.py UNKNOWN
<configuration>
    <net-file value="/home/abraao/Sumo/2024-10-15-09-02-01/osm.net.xml.gz"/>
    <output-trip-file value="/home/abraao/Sumo/2024-10-15-09-02-01/osm.passenger.trips.xml"/>
    <route-file value="/home/abraao/Sumo/2024-10-15-09-02-01/osm.passenger.rou.xml"/>
    <prefix value="veh"/>
    <trip-attributes value="departLane=&quot;best&quot;"/>
    <fringe-start-attributes value="departSpeed=&quot;max&quot;"/>
    <vehicle-class value="passenger"/>
    <lanes value="True"/>
    <fringe-factor value="15"/>
    <allow-fringe.min-length value="1000.0"/>
    <via-edge-types value="highway.motorway,highway.motorway_link,highway.trunk_link,highway.primary_link,highway.secondary_link,highway.tertiary_link"/>
    <min-distance value="300.0"/>
    <min-distance.fringe value="10.0"/>
    <remove-loops value="True"/>
    <validate value="True"/>
    <end value="120.0"/>
    <insertion-density value="30.0"/>
</configuration>
-->

<!-- generated on 2024-10-15 09:02:09 by Eclipse SUMO duarouter Version 1.20.0
<configuration xmlns:xsi="http://www.w3.org/2001/XMLSchema-instance" xsi:noNamespaceSchemaLocation="http://sumo.dlr.de/xsd/duarouterConfiguration.xsd">

    <input>
        <net-file value="/home/abraao/Sumo/2024-10-15-09-02-01/osm.net.xml.gz"/>
        <route-files value="/home/abraao/Sumo/2024-10-15-09-02-01/osm.passenger.trips.xml"/>
    </input>

    <output>
        <output-file value="/home/abraao/Sumo/2024-10-15-09-02-01/osm.passenger.trips.xml.tmp"/>
        <alternatives-output value="NUL"/>
        <write-trips value="true"/>
    </output>

    <processing>
        <remove-loops value="true"/>
    </processing>

    <time>
        <begin value="0.0"/>
        <end value="120.0"/>
    </time>

    <report>
        <no-warnings value="true"/>
        <ignore-errors value="true"/>
        <no-step-log value="true"/>
    </report>

</configuration>
-->

<routes xmlns:xsi="http://www.w3.org/2001/XMLSchema-instance" xsi:noNamespaceSchemaLocation="http://sumo.dlr.de/xsd/routes_file.xsd">
    <vType id="veh_passenger" vClass="passenger"/>
    <trip id="veh0" type="veh_passenger" depart="0.00" departLane="best" departSpeed="max" from="46995826" to="-1108261288"/>
    <trip id="veh1" type="veh_passenger" depart="11.27" departLane="best" departSpeed="max" from="570025712#0" to="472416616"/>
    <trip id="veh3" type="veh_passenger" depart="33.81" departLane="best" departSpeed="max" from="436493093" to="-46995830"/>
    <trip id="veh4" type="veh_passenger" depart="45.09" departLane="best" from="912499491#2" to="385939107"/>
    <trip id="veh5" type="veh_passenger" depart="56.36" departLane="best" departSpeed="max" from="-385939107" to="-46995816#0"/>
    <trip id="veh6" type="veh_passenger" depart="67.63" departLane="best" from="881400162#4" to="49471147#3"/>
    <trip id="veh7" type="veh_passenger" depart="78.90" departLane="best" departSpeed="max" from="436493093" to="46995812"/>
    <trip id="veh8" type="veh_passenger" depart="90.17" departLane="best" departSpeed="max" from="911355260" to="46995819#4"/>
    <trip id="veh9" type="veh_passenger" depart="101.44" departLane="best" departSpeed="max" from="1108261288" to="273070339"/>
    <trip id="veh10" type="veh_passenger" depart="112.71" departLane="best" departSpeed="max" from="-385939107" to="436493096#1"/>
</routes>
